16
Coordinates from ORCA-job salicylic_acid
  C   4.01777070281596      1.12458314353632     -0.00000000424608
  C   3.97523376421619      2.49781700994935     -0.00000000028506
  C   2.76138067853458      3.20671207799571      0.00000000161251
  C   1.55882281570175      2.47474617239603      0.00000000460554
  O   0.36268447230672      3.02976756232409      0.00000001222172
  C   1.60769795544768      1.07326874731890      0.00000000315853
  C   2.81302196104412      0.41427542844992     -0.00000000271479
  C   2.69359354294667      4.69495286052392     -0.00000000676424
  O   3.82118609363350      5.37902168999994      0.00000000711042
  O   1.65967397528601      5.28614263860172     -0.00000005430426
  H   4.96554890515886      0.60560517082988     -0.00000000974352
  H   4.92193858301013      3.02286610952057     -0.00000000463524
  H   0.43921730502195      3.98265265455817      0.00000001839749
  H   0.66937218324503      0.53766436757970      0.00000000627066
  H   2.82666036161716     -0.66794795882046     -0.00000000575446
  H   4.59237670001368      4.83777232523623      0.00000003507078
